&share
 wrf_core = 'ARW',
 max_dom = 1,
 start_date = '2006-07-23_00:00:00','2006-07-23_00:00:00','2006-07-23_00:00:00',
 end_date   = '2006-07-24_00:00:00','2006-07-28_00:00:00','2006-07-28_00:00:00'
 interval_seconds = 21600
 io_form_geogrid = 2,
/

&geogrid
 parent_id         =   1,   1,  2,
 parent_grid_ratio =   1,   3,  3,
 i_parent_start    =   1,  51,  91,
 j_parent_start    =   1,  21, 31, 
 e_we              =  163, 184, 184, 
 e_sn               =  163, 217, 280,
 !
 !!!!!!!!!!!!!!!!!!!!!!!!!!!! IMPORTANT NOTE !!!!!!!!!!!!!!!!!!!!!!!!!!!!
 ! The default datasets used to produce the HGT_M, GREENFRAC, 
 ! and LU_INDEX/LANDUSEF fields have changed in WPS v3.8. The HGT_M field
 ! is now interpolated from 30-arc-second USGS GMTED2010, the GREENFRAC 
 ! field is interpolated from MODIS FPAR, and the LU_INDEX/LANDUSEF fields 
 ! are interpolated from 21-class MODIS.
 !
 ! To match the output given by the default namelist.wps in WPS v3.7.1, 
 ! the following setting for geog_data_res may be used:
 !
 ! geog_data_res = 'gtopo_10m+usgs_10m+nesdis_greenfrac+10m','gtopo_2m+usgs_2m+nesdis_greenfrac+2m',
 !
 !!!!!!!!!!!!!!!!!!!!!!!!!!!! IMPORTANT NOTE !!!!!!!!!!!!!!!!!!!!!!!!!!!!
 !
 geog_data_res = 'default','default',
 dx = 27000,
 dy = 27000,
 map_proj = 'lambert',
 ref_lat   =  16.00,
 ref_lon   = -2.00,
 truelat1  =  16.0,
 truelat2  =  -2.0,
 stand_lon = -2.0,
 geog_data_path = '/home/camille/Build_WRF/WPS_GEOG/'
/

&ungrib
 out_format = 'WPS',
 prefix = 'FILE',
/

&metgrid
 fg_name = 'FILE'
 io_form_metgrid = 2, 
/
